Circuit: * D:\Electronics\Semester 4\DEVICES LAB\Characterization\1. JFET\Simulation\jfet transconductance characteristics.asc


Date: Thu Mar 11 22:48:34 2021
Total elapsed time: 0.031 seconds.

tnom = 27
temp = 27
method = trap
totiter = 38
traniter = 0
tranpoints = 0
accept = 0
rejected = 0
matrix size = 7
fillins = 0
solver = Normal
Matrix Compiler1: 294 bytes object code size
Matrix Compiler2: 481 bytes object code size
