Circuit: * D:\Electronics\Semester 4\DEVICES LAB\Characterization\1. JFET\Simulation\jfet op characteristics.asc

.OP point found by inspection.
.step v2=0
.step v2=-0.5
.step v2=-1
.step v2=-1.5
.step v2=-2
.step v2=-2.5
.step v2=-3

Date: Thu Mar 11 22:45:29 2021
Total elapsed time: 0.156 seconds.

tnom = 27
temp = 27
method = trap
totiter = 484
traniter = 0
tranpoints = 0
accept = 0
rejected = 0
matrix size = 8
fillins = 0
solver = Normal
Matrix Compiler1: 326 bytes object code size  0.1/0.1/[0.0]
Matrix Compiler2: 560 bytes object code size  0.1/0.1/[0.0]

