Circuit: * D:\Electronics\Semester 4\DEVICES LAB\Characterization\4. CB-CC Amplifier\CC Amplifier\CC Amplifier.asc

Direct Newton iteration for .op point succeeded.

Date: Fri Apr 02 12:36:50 2021
Total elapsed time: 0.072 seconds.

tnom = 27
temp = 27
method = trap
totiter = 5
traniter = 0
tranpoints = 0
accept = 0
rejected = 0
matrix size = 10
fillins = 0
solver = Normal
Matrix Compiler1:      31 opcodes
Matrix Compiler2: 768 bytes object code size
