Circuit: * D:\Electronics\Semester 4\DEVICES LAB\Characterization\3. CS Amplifier\Practice\500-0\CS Amplifier.asc

Instance "m1": Length shorter than recommended for a level 1 MOSFET.
Direct Newton iteration for .op point succeeded.

Date: Fri Mar 26 20:49:56 2021
Total elapsed time: 0.078 seconds.

tnom = 27
temp = 27
method = modified trap
totiter = 2094
traniter = 2087
tranpoints = 1042
accept = 1042
rejected = 0
matrix size = 6
fillins = 0
solver = Normal
Matrix Compiler1: 200 bytes object code size  0.1/0.0/[0.0]
Matrix Compiler2: off  [0.0]/0.1/0.0

