Circuit: * D:\Electronics\Semester 4\DEVICES LAB\Characterization\3. CS Amplifier\DC characteristics\DC characteristics.asc

Instance "m1": Length shorter than recommended for a level 1 MOSFET.
.step v2=0.6
.step v2=0.9
.step v2=1.2
.step v2=1.5
.step v2=1.8

Date: Fri Mar 26 18:04:21 2021
Total elapsed time: 0.559 seconds.

tnom = 27
temp = 27
method = trap
totiter = 2525
traniter = 0
tranpoints = 0
accept = 0
rejected = 0
matrix size = 5
fillins = 0
solver = Normal
Matrix Compiler1: 114 bytes object code size  0.1/0.1/[0.0]
Matrix Compiler2: 301 bytes object code size  0.1/0.1/[0.1]

