Circuit: * D:\Electronics\Semester 4\DEVICES LAB\Characterization\1. JFET\Practice\Output characteristics.asc

.OP point found by inspection.
.step v2=0
.step v2=-0.5
.step v2=-1
.step v2=-1.5
.step v2=-2
.step v2=-2.5
.step v2=-3
.step v2=-3.5
.step v2=-4
.step v2=-4.5
.step v2=-5
.step v2=-5.5
.step v2=-6
.step v2=-6.5
.step v2=-7
.step v2=-7.5
.step v2=-8
.step v2=-8.5
.step v2=-9
.step v2=-9.5
.step v2=-10

Date: Fri Apr 02 11:06:43 2021
Total elapsed time: 0.518 seconds.

tnom = 27
temp = 27
method = trap
totiter = 84086
traniter = 0
tranpoints = 0
accept = 0
rejected = 0
matrix size = 8
fillins = 0
solver = Normal
Matrix Compiler1: 326 bytes object code size  0.1/0.1/[0.0]
Matrix Compiler2: 560 bytes object code size  0.1/0.1/[0.0]

