Circuit: * D:\Electronics\Semester 4\DEVICES LAB\Characterization\1. JFET\Practice\Transconductance.asc


Date: Fri Apr 02 11:09:41 2021
Total elapsed time: 0.030 seconds.

tnom = 27
temp = 27
method = trap
totiter = 2004
traniter = 0
tranpoints = 0
accept = 0
rejected = 0
matrix size = 7
fillins = 0
solver = Normal
Matrix Compiler1: 294 bytes object code size  0.1/0.1/[0.0]
Matrix Compiler2: 481 bytes object code size  0.1/0.1/[0.0]

