Circuit: * D:\Electronics\Semester 4\DEVICES LAB\Characterization\2. CMOS Inverter\Practice\CMOS Amplifier.asc

Instance "m2": Length shorter than recommended for a level 1 MOSFET.
Instance "m2": Width narrower than recommended for a level 1 MOSFET.
Instance "m1": Length shorter than recommended for a level 1 MOSFET.
Instance "m1": Width narrower than recommended for a level 1 MOSFET.
Direct Newton iteration for .op point succeeded.

Date: Fri Mar 12 16:13:43 2021
Total elapsed time: 0.063 seconds.

tnom = 27
temp = 27
method = modified trap
totiter = 1003
traniter = 990
tranpoints = 390
accept = 261
rejected = 129
matrix size = 5
fillins = 0
solver = Normal
Matrix Compiler1: 204 bytes object code size  0.0/0.0/[0.0]
Matrix Compiler2: 311 bytes object code size  0.1/0.0/[0.0]

