Circuit: * D:\Electronics\Semester 4\DEVICES LAB\Characterization\3. CS Amplifier\Practice\CS Amplifier.asc

Instance "m1": Length shorter than recommended for a level 1 MOSFET.
Direct Newton iteration for .op point succeeded.

Date: Fri Mar 26 18:19:21 2021
Total elapsed time: 0.130 seconds.

tnom = 27
temp = 27
method = trap
totiter = 6
traniter = 0
tranpoints = 0
accept = 0
rejected = 0
matrix size = 7
fillins = 0
solver = Normal
Matrix Compiler1:      17 opcodes
Matrix Compiler2: 521 bytes object code size
