Circuit: * D:\Electronics\Semester 4\DEVICES LAB\Characterization\4. CB-CC Amplifier\CB Amplifier\CB Amplifier.asc

Direct Newton iteration for .op point succeeded.

Date: Mon Mar 29 21:03:04 2021
Total elapsed time: 0.063 seconds.

tnom = 27
temp = 27
method = trap
totiter = 6
traniter = 0
tranpoints = 0
accept = 0
rejected = 0
matrix size = 11
fillins = 0
solver = Normal
Matrix Compiler1:      33 opcodes
Matrix Compiler2: 847 bytes object code size
