Circuit: * D:\Electronics\Semester 4\DEVICES LAB\Characterization\2. CMOS Inverter\Practice\Inverter.asc

Instance "m2": Length shorter than recommended for a level 1 MOSFET.
Instance "m2": Width narrower than recommended for a level 1 MOSFET.
Instance "m1": Length shorter than recommended for a level 1 MOSFET.
Instance "m1": Width narrower than recommended for a level 1 MOSFET.

Date: Thu Mar 18 10:58:12 2021
Total elapsed time: 0.125 seconds.

tnom = 27
temp = 27
method = trap
totiter = 1013
traniter = 0
tranpoints = 0
accept = 0
rejected = 0
matrix size = 5
fillins = 0
solver = Normal
Matrix Compiler1: 204 bytes object code size  0.1/0.1/[0.1]
Matrix Compiler2: 311 bytes object code size  0.1/0.1/[0.1]

