Circuit: * D:\Electronics\Semester 4\DEVICES LAB\Characterization\3. CS Amplifier\Practice\500-100\CS Amplifier.asc

Instance "m1": Length shorter than recommended for a level 1 MOSFET.
Direct Newton iteration for .op point succeeded.

Date: Fri Mar 26 21:01:00 2021
Total elapsed time: 0.079 seconds.

tnom = 27
temp = 27
method = modified trap
totiter = 2090
traniter = 2084
tranpoints = 1042
accept = 1042
rejected = 0
matrix size = 7
fillins = 0
solver = Normal
Matrix Compiler1: 330 bytes object code size  0.1/0.0/[0.0]
Matrix Compiler2:      42 opcodes  0.1/[0.1]/0.1

