Circuit: * D:\Electronics\Semester 4\DEVICES LAB\Characterization\Exam\CB Amplifier.asc

Direct Newton iteration for .op point succeeded.

Date: Fri Apr 02 15:38:35 2021
Total elapsed time: 0.061 seconds.

tnom = 27
temp = 27
method = modified trap
totiter = 2089
traniter = 2082
tranpoints = 1042
accept = 1042
rejected = 0
matrix size = 10
fillins = 1
solver = Normal
Matrix Compiler1: 578 bytes object code size  0.1/0.1/[0.1]
Matrix Compiler2: off  [0.1]/0.1/0.1

