Circuit: * D:\Electronics\Semester 4\DEVICES LAB\Characterization\2. CMOS Inverter\Practice\Amplifier.asc

Direct Newton iteration for .op point succeeded.

Date: Fri Apr 02 11:22:50 2021
Total elapsed time: 0.078 seconds.

tnom = 27
temp = 27
method = trap
totiter = 34
traniter = 0
tranpoints = 0
accept = 0
rejected = 0
matrix size = 5
fillins = 0
solver = Normal
Matrix Compiler1:      12 opcodes
Matrix Compiler2:      28 opcodes
