Circuit: * D:\Electronics\Semester 4\DEVICES LAB\Characterization\2. CMOS Inverter\Practice\Inverter.asc

Instance "m2": Length shorter than recommended for a level 1 MOSFET.
Instance "m2": Width narrower than recommended for a level 1 MOSFET.
Instance "m1": Length shorter than recommended for a level 1 MOSFET.
Instance "m1": Width narrower than recommended for a level 1 MOSFET.

Date: Fri Apr 02 11:17:40 2021
Total elapsed time: 0.095 seconds.

tnom = 27
temp = 27
method = trap
totiter = 1013
traniter = 0
tranpoints = 0
accept = 0
rejected = 0
matrix size = 5
fillins = 0
solver = Normal
Matrix Compiler1: 204 bytes object code size  0.0/0.0/[0.0]
Matrix Compiler2: 311 bytes object code size  0.1/0.0/[0.0]

