Circuit: * D:\Electronics\Semester 4\DEVICES LAB\Characterization\4. CB-CC Amplifier\Practice\CB Amplifier.asc

Direct Newton iteration for .op point succeeded.

Date: Fri Apr 02 12:29:18 2021
Total elapsed time: 0.052 seconds.

tnom = 27
temp = 27
method = trap
totiter = 7
traniter = 0
tranpoints = 0
accept = 0
rejected = 0
matrix size = 11
fillins = 0
solver = Normal
Matrix Compiler1:      33 opcodes
Matrix Compiler2: 847 bytes object code size
