Circuit: * D:\Electronics\Semester 4\DEVICES LAB\Characterization\3. CS Amplifier\Practice\Amplifier.asc

Instance "m1": Length shorter than recommended for a level 1 MOSFET.
Direct Newton iteration for .op point succeeded.

Date: Fri Apr 02 11:47:55 2021
Total elapsed time: 0.077 seconds.

tnom = 27
temp = 27
method = trap
totiter = 8
traniter = 0
tranpoints = 0
accept = 0
rejected = 0
matrix size = 8
fillins = 0
solver = Normal
Matrix Compiler1:      20 opcodes
Matrix Compiler2: 594 bytes object code size
